&HEAD CHID='radiation', TITLE='radiation in a box'/

&MESH XB = 0.0,1.0, 0.0,1.0, 0.0,1.0, 
      IJK = 50, 50, 50 /

&MISC Y_CO2_INFTY = 0,
      HUMIDITY = 0,
      SOLID_PHASE_ONLY = .TRUE./

&RADI RADIATION = .TRUE.,
      NUMBER_RADIATION_ANGLES = 100,
      TIME_STEP_INCREMENT = 1,
      ANGLE_INCREMENT = 1 / 

&TIME T_END = 0.1, DT = 0.1  /

&DUMP NFRAMES = 500,
      SMOKE3D = .FALSE., 
      DT_DEVC = 0,
      DT_PL3D = 10000. /

&VENT MB='XMIN', SURF_ID = 'HOT'  /
&VENT MB='XMAX', SURF_ID = 'COLD' /
&VENT MB='YMIN', SURF_ID = 'COLD' /
&VENT MB='YMAX', SURF_ID = 'COLD' /
&VENT MB='ZMIN', SURF_ID = 'COLD' /
&VENT MB='ZMAX', SURF_ID = 'COLD' /

&SURF ID = 'HOT',  TMP_FRONT = 91.2717, EMISSIVITY = 1.0, TAU_T = 0, HEAT_TRANSFER_COEFFICIENT = 0, COLOR='RED'/
&SURF ID = 'COLD', TMP_FRONT = -272.15, EMISSIVITY = 1.0, TAU_T = 0, HEAT_TRANSFER_COEFFICIENT = 0, COLOR='BLUE'/

&DEVC XB=1.0,1.0, 0.0,1.0, 1.0,0.0, QUANTITY='INCIDENT HEAT FLUX',  ID='inc_flux_front', POINTS=10, IOR=-1, STATISTICS_START=0 , STATISTICS_END=1 /
&DEVC XB=1.0,0.0, 0.0,0.0, 1.0,0.0, QUANTITY='INCIDENT HEAT FLUX',  ID='inc_flux_side', POINTS=10, IOR=2, STATISTICS_START=0 , STATISTICS_END=1 /

&TAIL /
