&HEAD CHID='out_tutorial_01', TITLE = 'Figures for fds tutorial'/

&MESH XB=0,2,0,4,0,2.5, IJK=20,40,25/
&VENT XB=0.5,1.5,4,4,0,2, surf_ID='OPEN'/

&TIME T_END = 20./
&DUMP NFRAMES=60/

&REAC FUEL = 'PROPANE'/
&OBST XB=0.5,1.5,1.5,2.5,0,0.5, SURF_ID='Fire', COLOR='GREEN'/
&SURF ID = 'Fire', HRRPUA = 600/

&DEVC ID='TEMPERATURE_DEVICE', XYZ=1,2,1.5, QUANTITY='TEMPERATURE'/
&SLCF PBY=2, QUANTITY='TEMPERATURE'/


&TAIL/
