"--------------------------------------------------------------------------------------------"
"Output files will be tagged with 'pool_fire', 'TITLE' is just an description"
"--------------------------------------------------------------------------------------------"
&HEAD CHID = 'pool_fire', TITLE = 'Example of a pool fire'  /

"--------------------------------------------------------------------------------------------"
"Mesh with 25/25/50 cells in X/Y/Z axes that extends from X/Y/Z = -2.5/-2.5/0 to 2.5/2.5/10 m"
"--------------------------------------------------------------------------------------------"
&MESH IJK = 25,25,50, XB = -2.5,2.5, -2.5,2.5, 0.0,10 /

"--------------------------------------------------------------------------------------------"
"End of simulation time is 30 s"
"--------------------------------------------------------------------------------------------"
&TIME T_END = 30.0 / End of simulation time is 30 s

"--------------------------------------------------------------------------------------------"
"Specifying FDS default fuel 'METHANE' for the reaction"
"--------------------------------------------------------------------------------------------"
&REAC FUEL = 'METHANE' /

"--------------------------------------------------------------------------------------------"
"Surface 'BURNER' with a heat release rate of 1000 kW/m^2"
"--------------------------------------------------------------------------------------------"
&SURF ID = 'BURNER', HRRPUA = 1000., COLOR = 'RASPBERRY' / Surface with ID /

"--------------------------------------------------------------------------------------------"
"Vent in the X-Y plane at Z = 0 that extends from X/Y = -0.5/-0.5 to 0.5/0.5"
"Surface 'BURNER' is assigned to the vent"
"--------------------------------------------------------------------------------------------"
&VENT XB = -0.5,0.5, -0.5,0.5, 0.0,0.0, SURF_ID='BURNER'/

"--------------------------------------------------------------------------------------------"
"Slice file in the Y-Z plane at X = 0 with quantity 'temperature'"
"CELL_CENTERED prevents FDS from interpolating the results to the cell corners"
"--------------------------------------------------------------------------------------------"
&SLCF PBX = 0, QUANTITY = 'TEMPERATURE', CELL_CENTERED = .TRUE. /

"--------------------------------------------------------------------------------------------"
"FDS does not look after this line"
"--------------------------------------------------------------------------------------------"
&TAIL /